# generated using pymatgen
data_SiO2
_symmetry_space_group_name_H-M   'P 1'
_cell_length_a   16.90515000
_cell_length_b   20.38780200
_cell_length_c   5.20295800
_cell_angle_alpha   90.00000000
_cell_angle_beta   90.00000000
_cell_angle_gamma   90.00000000
_symmetry_Int_Tables_number   1
_chemical_formula_structural   SiO2
_chemical_formula_sum   'Si32 O64'
_cell_volume   1793.24552598
_cell_formula_units_Z   32
loop_
 _symmetry_equiv_pos_site_id
 _symmetry_equiv_pos_as_xyz
  1  'x, y, z'
loop_
 _atom_type_symbol
 _atom_type_oxidation_number
  Si4+  4.0
  O2-  -2.0
loop_
 _atom_site_type_symbol
 _atom_site_label
 _atom_site_symmetry_multiplicity
 _atom_site_fract_x
 _atom_site_fract_y
 _atom_site_fract_z
 _atom_site_occupancy
  Si4+  Si0  1  0.18398350  0.92383850  0.46678100  1
  Si4+  Si1  1  0.81601650  0.07616150  0.46678100  1
  Si4+  Si2  1  0.68911700  0.18845100  0.46866000  1
  Si4+  Si3  1  0.40766450  0.77884350  0.97151300  1
  Si4+  Si4  1  0.40766450  0.22115650  0.02848700  1
  Si4+  Si5  1  0.59209050  0.37895250  0.96557600  1
  Si4+  Si6  1  0.59209050  0.62104750  0.03442400  1
  Si4+  Si7  1  0.40790950  0.37895250  0.03442400  1
  Si4+  Si8  1  0.59233550  0.22115650  0.97151300  1
  Si4+  Si9  1  0.59233550  0.77884350  0.02848700  1
  Si4+  Si10  1  0.31088300  0.81154900  0.46866000  1
  Si4+  Si11  1  0.68911700  0.81154900  0.53134000  1
  Si4+  Si12  1  0.31088300  0.18845100  0.53134000  1
  Si4+  Si13  1  0.81601650  0.92383850  0.53321900  1
  Si4+  Si14  1  0.18398350  0.07616150  0.53321900  1
  Si4+  Si15  1  0.40790950  0.62104750  0.96557600  1
  Si4+  Si16  1  0.68398350  0.42383850  0.46678100  1
  Si4+  Si17  1  0.31601650  0.57616150  0.46678100  1
  Si4+  Si18  1  0.18911700  0.68845100  0.46866000  1
  Si4+  Si19  1  0.90766450  0.27884350  0.97151300  1
  Si4+  Si20  1  0.90766450  0.72115650  0.02848700  1
  Si4+  Si21  1  0.09209050  0.87895250  0.96557600  1
  Si4+  Si22  1  0.09209050  0.12104750  0.03442400  1
  Si4+  Si23  1  0.90790950  0.87895250  0.03442400  1
  Si4+  Si24  1  0.09233550  0.72115650  0.97151300  1
  Si4+  Si25  1  0.09233550  0.27884350  0.02848700  1
  Si4+  Si26  1  0.81088300  0.31154900  0.46866000  1
  Si4+  Si27  1  0.18911700  0.31154900  0.53134000  1
  Si4+  Si28  1  0.81088300  0.68845100  0.53134000  1
  Si4+  Si29  1  0.31601650  0.42383850  0.53321900  1
  Si4+  Si30  1  0.68398350  0.57616150  0.53321900  1
  Si4+  Si31  1  0.90790950  0.12104750  0.96557600  1
  O2-  O32  1  0.79091900  0.00000000  0.50000000  1
  O2-  O33  1  0.85382300  0.91462900  0.81832300  1
  O2-  O34  1  0.50000000  0.20093300  0.00000000  1
  O2-  O35  1  0.64363450  0.18579850  0.19474700  1
  O2-  O36  1  0.85382300  0.08537100  0.18167700  1
  O2-  O37  1  0.11872600  0.09764900  0.31948000  1
  O2-  O38  1  0.26322400  0.87991100  0.50370300  1
  O2-  O39  1  0.50000000  0.60051100  0.00000000  1
  O2-  O40  1  0.39724150  0.30015350  0.00390400  1
  O2-  O41  1  0.11872600  0.90235100  0.68052000  1
  O2-  O42  1  0.14617700  0.91462900  0.18167700  1
  O2-  O43  1  0.50000000  0.79906700  0.00000000  1
  O2-  O44  1  0.62383600  0.19591600  0.69480100  1
  O2-  O45  1  0.20908100  0.00000000  0.50000000  1
  O2-  O46  1  0.14617700  0.08537100  0.81832300  1
  O2-  O47  1  0.35636550  0.81420150  0.19474700  1
  O2-  O48  1  0.73677600  0.12008900  0.50370300  1
  O2-  O49  1  0.88127400  0.90235100  0.31948000  1
  O2-  O50  1  0.37616400  0.19591600  0.30519900  1
  O2-  O51  1  0.60275850  0.30015350  0.99609600  1
  O2-  O52  1  0.88127400  0.09764900  0.68052000  1
  O2-  O53  1  0.60275850  0.69984650  0.00390400  1
  O2-  O54  1  0.39724150  0.69984650  0.99609600  1
  O2-  O55  1  0.25000000  0.75000000  0.47762000  1
  O2-  O56  1  0.26322400  0.12008900  0.49629700  1
  O2-  O57  1  0.64363450  0.81420150  0.80525300  1
  O2-  O58  1  0.62383600  0.80408400  0.30519900  1
  O2-  O59  1  0.50000000  0.39948900  0.00000000  1
  O2-  O60  1  0.73677600  0.87991100  0.49629700  1
  O2-  O61  1  0.37616400  0.80408400  0.69480100  1
  O2-  O62  1  0.35636550  0.18579850  0.80525300  1
  O2-  O63  1  0.25000000  0.25000000  0.52238000  1
  O2-  O64  1  0.29091900  0.50000000  0.50000000  1
  O2-  O65  1  0.35382300  0.41462900  0.81832300  1
  O2-  O66  1  0.00000000  0.70093300  0.00000000  1
  O2-  O67  1  0.14363450  0.68579850  0.19474700  1
  O2-  O68  1  0.35382300  0.58537100  0.18167700  1
  O2-  O69  1  0.61872600  0.59764900  0.31948000  1
  O2-  O70  1  0.76322400  0.37991100  0.50370300  1
  O2-  O71  1  0.00000000  0.10051100  0.00000000  1
  O2-  O72  1  0.89724150  0.80015350  0.00390400  1
  O2-  O73  1  0.61872600  0.40235100  0.68052000  1
  O2-  O74  1  0.64617700  0.41462900  0.18167700  1
  O2-  O75  1  0.00000000  0.29906700  0.00000000  1
  O2-  O76  1  0.12383600  0.69591600  0.69480100  1
  O2-  O77  1  0.70908100  0.50000000  0.50000000  1
  O2-  O78  1  0.64617700  0.58537100  0.81832300  1
  O2-  O79  1  0.85636550  0.31420150  0.19474700  1
  O2-  O80  1  0.23677600  0.62008900  0.50370300  1
  O2-  O81  1  0.38127400  0.40235100  0.31948000  1
  O2-  O82  1  0.87616400  0.69591600  0.30519900  1
  O2-  O83  1  0.10275850  0.80015350  0.99609600  1
  O2-  O84  1  0.38127400  0.59764900  0.68052000  1
  O2-  O85  1  0.10275850  0.19984650  0.00390400  1
  O2-  O86  1  0.89724150  0.19984650  0.99609600  1
  O2-  O87  1  0.75000000  0.25000000  0.47762000  1
  O2-  O88  1  0.76322400  0.62008900  0.49629700  1
  O2-  O89  1  0.14363450  0.31420150  0.80525300  1
  O2-  O90  1  0.12383600  0.30408400  0.30519900  1
  O2-  O91  1  0.00000000  0.89948900  0.00000000  1
  O2-  O92  1  0.23677600  0.37991100  0.49629700  1
  O2-  O93  1  0.87616400  0.30408400  0.69480100  1
  O2-  O94  1  0.85636550  0.68579850  0.80525300  1
  O2-  O95  1  0.75000000  0.75000000  0.52238000  1
