# generated using pymatgen
data_SiO2
_symmetry_space_group_name_H-M   'P 1'
_cell_length_a   13.54104018
_cell_length_b   19.99454506
_cell_length_c   20.37203939
_cell_angle_alpha   90.00000000
_cell_angle_beta   90.00000000
_cell_angle_gamma   90.00000000
_symmetry_Int_Tables_number   1
_chemical_formula_structural   SiO2
_chemical_formula_sum   'Si96 O192'
_cell_volume   5515.66728786
_cell_formula_units_Z   96
loop_
 _symmetry_equiv_pos_site_id
 _symmetry_equiv_pos_as_xyz
  1  'x, y, z'
loop_
 _atom_site_type_symbol
 _atom_site_label
 _atom_site_symmetry_multiplicity
 _atom_site_fract_x
 _atom_site_fract_y
 _atom_site_fract_z
 _atom_site_occupancy
  Si  Si0  1  0.17066015  0.05879834  0.42483450  1
  Si  Si1  1  0.67066015  0.55879834  0.07516550  1
  Si  Si2  1  0.17066015  0.44120166  0.42483450  1
  Si  Si3  1  0.67066015  0.94120166  0.07516550  1
  Si  Si4  1  0.82933985  0.94120166  0.57516550  1
  Si  Si5  1  0.32933985  0.44120166  0.92483450  1
  Si  Si6  1  0.82933985  0.55879834  0.57516550  1
  Si  Si7  1  0.32933985  0.05879834  0.92483450  1
  Si  Si8  1  0.31860352  0.03011015  0.31200828  1
  Si  Si9  1  0.81860352  0.53011015  0.18799172  1
  Si  Si10  1  0.31860352  0.46988985  0.31200828  1
  Si  Si11  1  0.81860352  0.96988985  0.18799172  1
  Si  Si12  1  0.68139648  0.96988985  0.68799172  1
  Si  Si13  1  0.18139648  0.46988985  0.81200828  1
  Si  Si14  1  0.68139648  0.53011015  0.68799172  1
  Si  Si15  1  0.18139648  0.03011015  0.81200828  1
  Si  Si16  1  0.53794043  0.05613529  0.27829282  1
  Si  Si17  1  0.03794043  0.55613529  0.22170718  1
  Si  Si18  1  0.53794043  0.44386471  0.27829282  1
  Si  Si19  1  0.03794043  0.94386471  0.22170718  1
  Si  Si20  1  0.46205957  0.94386471  0.72170718  1
  Si  Si21  1  0.96205957  0.44386471  0.77829282  1
  Si  Si22  1  0.46205957  0.55613529  0.72170718  1
  Si  Si23  1  0.96205957  0.05613529  0.77829282  1
  Si  Si24  1  0.53245709  0.06432207  0.12223867  1
  Si  Si25  1  0.03245709  0.56432207  0.37776133  1
  Si  Si26  1  0.53245709  0.43567793  0.12223867  1
  Si  Si27  1  0.03245709  0.93567793  0.37776133  1
  Si  Si28  1  0.46754291  0.93567793  0.87776133  1
  Si  Si29  1  0.96754291  0.43567793  0.62223867  1
  Si  Si30  1  0.46754291  0.56432207  0.87776133  1
  Si  Si31  1  0.96754291  0.06432207  0.62223867  1
  Si  Si32  1  0.31989071  0.03236486  0.07198869  1
  Si  Si33  1  0.81989071  0.53236486  0.42801131  1
  Si  Si34  1  0.31989071  0.46763514  0.07198869  1
  Si  Si35  1  0.81989071  0.96763514  0.42801131  1
  Si  Si36  1  0.68010929  0.96763514  0.92801131  1
  Si  Si37  1  0.18010929  0.46763514  0.57198869  1
  Si  Si38  1  0.68010929  0.53236486  0.92801131  1
  Si  Si39  1  0.18010929  0.03236486  0.57198869  1
  Si  Si40  1  0.18877580  0.06711464  0.19084578  1
  Si  Si41  1  0.68877580  0.56711464  0.30915422  1
  Si  Si42  1  0.18877580  0.43288536  0.19084578  1
  Si  Si43  1  0.68877580  0.93288536  0.30915422  1
  Si  Si44  1  0.81122420  0.93288536  0.80915422  1
  Si  Si45  1  0.31122420  0.43288536  0.69084578  1
  Si  Si46  1  0.81122420  0.56711464  0.80915422  1
  Si  Si47  1  0.31122420  0.06711464  0.69084578  1
  Si  Si48  1  0.18187310  0.82848109  0.42335653  1
  Si  Si49  1  0.68187310  0.32848108  0.07664347  1
  Si  Si50  1  0.18187310  0.67151891  0.42335653  1
  Si  Si51  1  0.68187310  0.17151891  0.07664347  1
  Si  Si52  1  0.81812690  0.17151891  0.57664347  1
  Si  Si53  1  0.31812690  0.67151891  0.92335653  1
  Si  Si54  1  0.81812690  0.32848108  0.57664347  1
  Si  Si55  1  0.31812690  0.82848109  0.92335653  1
  Si  Si56  1  0.31816319  0.87091634  0.30833471  1
  Si  Si57  1  0.81816319  0.37091633  0.19166529  1
  Si  Si58  1  0.31816319  0.62908366  0.30833471  1
  Si  Si59  1  0.81816319  0.12908366  0.19166529  1
  Si  Si60  1  0.68183681  0.12908366  0.69166529  1
  Si  Si61  1  0.18183681  0.62908366  0.80833471  1
  Si  Si62  1  0.68183681  0.37091633  0.69166529  1
  Si  Si63  1  0.18183681  0.87091634  0.80833471  1
  Si  Si64  1  0.53160285  0.83027597  0.26885205  1
  Si  Si65  1  0.03160285  0.33027597  0.23114795  1
  Si  Si66  1  0.53160285  0.66972403  0.26885205  1
  Si  Si67  1  0.03160285  0.16972403  0.23114795  1
  Si  Si68  1  0.46839715  0.16972403  0.73114795  1
  Si  Si69  1  0.96839715  0.66972403  0.76885205  1
  Si  Si70  1  0.46839715  0.33027597  0.73114795  1
  Si  Si71  1  0.96839715  0.83027597  0.76885205  1
  Si  Si72  1  0.52786065  0.82753811  0.11545423  1
  Si  Si73  1  0.02786065  0.32753810  0.38454577  1
  Si  Si74  1  0.52786065  0.67246189  0.11545423  1
  Si  Si75  1  0.02786065  0.17246189  0.38454577  1
  Si  Si76  1  0.47213935  0.17246189  0.88454577  1
  Si  Si77  1  0.97213935  0.67246189  0.61545423  1
  Si  Si78  1  0.47213935  0.32753810  0.88454577  1
  Si  Si79  1  0.97213935  0.82753811  0.61545423  1
  Si  Si80  1  0.31539706  0.87370520  0.06946962  1
  Si  Si81  1  0.81539706  0.37370520  0.43053038  1
  Si  Si82  1  0.31539706  0.62629480  0.06946962  1
  Si  Si83  1  0.81539706  0.12629480  0.43053038  1
  Si  Si84  1  0.68460294  0.12629480  0.93053038  1
  Si  Si85  1  0.18460294  0.62629480  0.56946962  1
  Si  Si86  1  0.68460294  0.37370520  0.93053038  1
  Si  Si87  1  0.18460294  0.87370520  0.56946962  1
  Si  Si88  1  0.18360772  0.82711677  0.18736164  1
  Si  Si89  1  0.68360772  0.32711676  0.31263836  1
  Si  Si90  1  0.18360772  0.67288323  0.18736164  1
  Si  Si91  1  0.68360772  0.17288323  0.31263836  1
  Si  Si92  1  0.81639228  0.17288323  0.81263836  1
  Si  Si93  1  0.31639228  0.67288323  0.68736164  1
  Si  Si94  1  0.81639228  0.32711676  0.81263836  1
  Si  Si95  1  0.31639228  0.82711677  0.68736164  1
  O  O96  1  0.21455079  0.04703743  0.49785849  1
  O  O97  1  0.71455079  0.54703743  0.00214151  1
  O  O98  1  0.21455079  0.45296257  0.49785849  1
  O  O99  1  0.71455079  0.95296257  0.00214151  1
  O  O100  1  0.78544921  0.95296257  0.50214151  1
  O  O101  1  0.28544921  0.45296257  0.99785849  1
  O  O102  1  0.78544921  0.54703743  0.50214151  1
  O  O103  1  0.28544921  0.04703743  0.99785849  1
  O  O104  1  0.26435900  0.06300872  0.37532375  1
  O  O105  1  0.76435900  0.56300872  0.12467625  1
  O  O106  1  0.26435900  0.43699128  0.37532375  1
  O  O107  1  0.76435900  0.93699128  0.12467625  1
  O  O108  1  0.73564100  0.93699128  0.62467625  1
  O  O109  1  0.23564100  0.43699128  0.87532375  1
  O  O110  1  0.73564100  0.56300872  0.62467625  1
  O  O111  1  0.23564100  0.06300872  0.87532375  1
  O  O112  1  0.10979532  0.12883831  0.42293868  1
  O  O113  1  0.60979532  0.62883831  0.07706132  1
  O  O114  1  0.10979532  0.37116169  0.42293868  1
  O  O115  1  0.60979532  0.87116169  0.07706132  1
  O  O116  1  0.89020468  0.87116169  0.57706132  1
  O  O117  1  0.39020468  0.37116169  0.92293868  1
  O  O118  1  0.89020468  0.62883831  0.57706132  1
  O  O119  1  0.39020468  0.12883831  0.92293868  1
  O  O120  1  0.09606097  0.99742788  0.40760769  1
  O  O121  1  0.59606097  0.49742788  0.09239231  1
  O  O122  1  0.09606097  0.50257212  0.40760769  1
  O  O123  1  0.59606097  0.00257212  0.09239231  1
  O  O124  1  0.90393903  0.00257212  0.59239231  1
  O  O125  1  0.40393903  0.50257212  0.90760769  1
  O  O126  1  0.90393903  0.49742788  0.59239231  1
  O  O127  1  0.40393903  0.99742788  0.90760769  1
  O  O128  1  0.43598533  0.04463997  0.31872345  1
  O  O129  1  0.93598533  0.54463997  0.18127655  1
  O  O130  1  0.43598533  0.45536003  0.31872345  1
  O  O131  1  0.93598533  0.95536003  0.18127655  1
  O  O132  1  0.56401467  0.95536003  0.68127655  1
  O  O133  1  0.06401467  0.45536003  0.81872345  1
  O  O134  1  0.56401467  0.54463997  0.68127655  1
  O  O135  1  0.06401467  0.04463997  0.81872345  1
  O  O136  1  0.29192234  0.95041970  0.31020634  1
  O  O137  1  0.79192234  0.45041970  0.18979366  1
  O  O138  1  0.29192234  0.54958030  0.31020634  1
  O  O139  1  0.79192234  0.04958030  0.18979366  1
  O  O140  1  0.70807766  0.04958030  0.68979366  1
  O  O141  1  0.20807766  0.54958030  0.81020634  1
  O  O142  1  0.70807766  0.45041970  0.68979366  1
  O  O143  1  0.20807766  0.95041970  0.81020634  1
  O  O144  1  0.27764901  0.06424496  0.24474272  1
  O  O145  1  0.77764901  0.56424496  0.25525728  1
  O  O146  1  0.27764901  0.43575504  0.24474272  1
  O  O147  1  0.77764901  0.93575504  0.25525728  1
  O  O148  1  0.72235099  0.93575504  0.75525728  1
  O  O149  1  0.22235099  0.43575504  0.74474272  1
  O  O150  1  0.72235099  0.56424496  0.75525728  1
  O  O151  1  0.22235099  0.06424496  0.74474272  1
  O  O152  1  0.58557030  0.12754721  0.29907275  1
  O  O153  1  0.08557030  0.62754721  0.20092725  1
  O  O154  1  0.58557030  0.37245279  0.29907275  1
  O  O155  1  0.08557030  0.87245279  0.20092725  1
  O  O156  1  0.41442970  0.87245279  0.70092725  1
  O  O157  1  0.91442970  0.37245279  0.79907275  1
  O  O158  1  0.41442970  0.62754721  0.70092725  1
  O  O159  1  0.91442970  0.12754721  0.79907275  1
  O  O160  1  0.51417764  0.05388032  0.20018983  1
  O  O161  1  0.01417764  0.55388032  0.29981017  1
  O  O162  1  0.51417764  0.44611968  0.20018983  1
  O  O163  1  0.01417764  0.94611968  0.29981017  1
  O  O164  1  0.48582236  0.94611968  0.79981017  1
  O  O165  1  0.98582236  0.44611968  0.70018983  1
  O  O166  1  0.48582236  0.55388032  0.79981017  1
  O  O167  1  0.98582236  0.05388032  0.70018983  1
  O  O168  1  0.61368760  0.99605937  0.29631500  1
  O  O169  1  0.11368760  0.49605937  0.20368500  1
  O  O170  1  0.61368760  0.50394063  0.29631500  1
  O  O171  1  0.11368760  0.00394063  0.20368500  1
  O  O172  1  0.38631240  0.00394063  0.70368500  1
  O  O173  1  0.88631240  0.50394063  0.79631500  1
  O  O174  1  0.38631240  0.49605937  0.70368500  1
  O  O175  1  0.88631240  0.99605937  0.79631500  1
  O  O176  1  0.58649503  0.13541305  0.10803951  1
  O  O177  1  0.08649503  0.63541305  0.39196049  1
  O  O178  1  0.58649503  0.36458695  0.10803951  1
  O  O179  1  0.08649503  0.86458695  0.39196049  1
  O  O180  1  0.41350497  0.86458695  0.89196049  1
  O  O181  1  0.91350497  0.36458695  0.60803951  1
  O  O182  1  0.41350497  0.63541305  0.89196049  1
  O  O183  1  0.91350497  0.13541305  0.60803951  1
  O  O184  1  0.42751916  0.06622128  0.08410906  1
  O  O185  1  0.92751916  0.56622128  0.41589094  1
  O  O186  1  0.42751916  0.43377872  0.08410906  1
  O  O187  1  0.92751916  0.93377872  0.41589094  1
  O  O188  1  0.57248084  0.93377872  0.91589094  1
  O  O189  1  0.07248084  0.43377872  0.58410906  1
  O  O190  1  0.57248084  0.56622128  0.91589094  1
  O  O191  1  0.07248084  0.06622128  0.58410906  1
  O  O192  1  0.23599670  0.06613356  0.11791659  1
  O  O193  1  0.73599670  0.56613356  0.38208341  1
  O  O194  1  0.23599670  0.43386644  0.11791659  1
  O  O195  1  0.73599670  0.93386644  0.38208341  1
  O  O196  1  0.76400330  0.93386644  0.88208341  1
  O  O197  1  0.26400330  0.43386644  0.61791659  1
  O  O198  1  0.76400330  0.56613356  0.88208341  1
  O  O199  1  0.26400330  0.06613356  0.61791659  1
  O  O200  1  0.32831518  0.95244040  0.08808802  1
  O  O201  1  0.82831518  0.45244039  0.41191198  1
  O  O202  1  0.32831518  0.54755960  0.08808802  1
  O  O203  1  0.82831518  0.04755960  0.41191198  1
  O  O204  1  0.67168482  0.04755960  0.91191198  1
  O  O205  1  0.17168482  0.54755960  0.58808802  1
  O  O206  1  0.67168482  0.45244039  0.91191198  1
  O  O207  1  0.17168482  0.95244040  0.58808802  1
  O  O208  1  0.13031996  0.13748984  0.19854802  1
  O  O209  1  0.63031996  0.63748984  0.30145198  1
  O  O210  1  0.13031996  0.36251016  0.19854802  1
  O  O211  1  0.63031996  0.86251016  0.30145198  1
  O  O212  1  0.86968004  0.86251016  0.80145198  1
  O  O213  1  0.36968004  0.36251016  0.69854802  1
  O  O214  1  0.86968004  0.63748984  0.80145198  1
  O  O215  1  0.36968004  0.13748984  0.69854802  1
  O  O216  1  0.21404525  0.86335255  0.49267507  1
  O  O217  1  0.71404525  0.36335255  0.00732493  1
  O  O218  1  0.21404525  0.63664745  0.49267507  1
  O  O219  1  0.71404525  0.13664745  0.00732493  1
  O  O220  1  0.78595475  0.13664745  0.50732493  1
  O  O221  1  0.28595475  0.63664745  0.99267507  1
  O  O222  1  0.78595475  0.36335255  0.50732493  1
  O  O223  1  0.28595475  0.86335255  0.99267507  1
  O  O224  1  0.27593111  0.83472715  0.37386416  1
  O  O225  1  0.77593111  0.33472715  0.12613584  1
  O  O226  1  0.27593111  0.66527285  0.37386416  1
  O  O227  1  0.77593111  0.16527285  0.12613584  1
  O  O228  1  0.72406889  0.16527285  0.62613584  1
  O  O229  1  0.22406889  0.66527285  0.87386416  1
  O  O230  1  0.72406889  0.33472715  0.62613584  1
  O  O231  1  0.22406889  0.83472715  0.87386416  1
  O  O232  1  0.15298297  0.75000000  0.43431344  1
  O  O233  1  0.65298297  0.25000000  0.06568656  1
  O  O234  1  0.84701703  0.25000000  0.56568656  1
  O  O235  1  0.34701703  0.75000000  0.93431344  1
  O  O236  1  0.43640146  0.85894460  0.30828175  1
  O  O237  1  0.93640146  0.35894460  0.19171825  1
  O  O238  1  0.43640146  0.64105540  0.30828175  1
  O  O239  1  0.93640146  0.14105540  0.19171825  1
  O  O240  1  0.56359854  0.14105540  0.69171825  1
  O  O241  1  0.06359854  0.64105540  0.80828175  1
  O  O242  1  0.56359854  0.35894460  0.69171825  1
  O  O243  1  0.06359854  0.85894460  0.80828175  1
  O  O244  1  0.27051898  0.83927403  0.24177423  1
  O  O245  1  0.77051898  0.33927402  0.25822577  1
  O  O246  1  0.27051898  0.66072597  0.24177423  1
  O  O247  1  0.77051898  0.16072597  0.25822577  1
  O  O248  1  0.72948102  0.16072597  0.75822577  1
  O  O249  1  0.22948102  0.66072597  0.74177423  1
  O  O250  1  0.72948102  0.33927402  0.75822577  1
  O  O251  1  0.22948102  0.83927403  0.74177423  1
  O  O252  1  0.53969390  0.75000000  0.27768788  1
  O  O253  1  0.03969390  0.25000000  0.22231212  1
  O  O254  1  0.46030610  0.25000000  0.72231212  1
  O  O255  1  0.96030610  0.75000000  0.77768788  1
  O  O256  1  0.52120524  0.85240203  0.19180388  1
  O  O257  1  0.02120524  0.35240202  0.30819612  1
  O  O258  1  0.52120524  0.64759797  0.19180388  1
  O  O259  1  0.02120524  0.14759797  0.30819612  1
  O  O260  1  0.47879476  0.14759797  0.80819612  1
  O  O261  1  0.97879476  0.64759797  0.69180388  1
  O  O262  1  0.47879476  0.35240202  0.80819612  1
  O  O263  1  0.97879476  0.85240203  0.69180388  1
  O  O264  1  0.56248931  0.75000000  0.11076739  1
  O  O265  1  0.06248931  0.25000000  0.38923261  1
  O  O266  1  0.43751069  0.25000000  0.88923261  1
  O  O267  1  0.93751069  0.75000000  0.61076739  1
  O  O268  1  0.41976127  0.83536788  0.08171085  1
  O  O269  1  0.91976127  0.33536788  0.41828915  1
  O  O270  1  0.41976127  0.66463212  0.08171085  1
  O  O271  1  0.91976127  0.16463212  0.41828915  1
  O  O272  1  0.58023873  0.16463212  0.91828915  1
  O  O273  1  0.08023873  0.66463212  0.58171085  1
  O  O274  1  0.58023873  0.33536788  0.91828915  1
  O  O275  1  0.08023873  0.83536788  0.58171085  1
  O  O276  1  0.22823888  0.84203907  0.11461018  1
  O  O277  1  0.72823888  0.34203907  0.38538982  1
  O  O278  1  0.22823888  0.65796093  0.11461018  1
  O  O279  1  0.72823888  0.15796093  0.38538982  1
  O  O280  1  0.77176112  0.15796093  0.88538982  1
  O  O281  1  0.27176112  0.65796093  0.61461018  1
  O  O282  1  0.77176112  0.34203907  0.88538982  1
  O  O283  1  0.27176112  0.84203907  0.61461018  1
  O  O284  1  0.14685177  0.75000000  0.19104959  1
  O  O285  1  0.64685177  0.25000000  0.30895041  1
  O  O286  1  0.85314823  0.25000000  0.80895041  1
  O  O287  1  0.35314823  0.75000000  0.69104959  1
